#======================================================================

# CRYSTAL DATA

#----------------------------------------------------------------------

data_VESTA_phase_1


_pd_phase_name                         ''
_cell_length_a                         1.00000
_cell_length_b                         1.00000
_cell_length_c                         1.00000
_cell_angle_alpha                      90
_cell_angle_beta                       90
_cell_angle_gamma                      90
_symmetry_space_group_name_H-M         'P m -3 m'
_symmetry_Int_Tables_number            221

loop_
_symmetry_equiv_pos_as_xyz
   'x, y, z'
   '-x, -y, -z'
   '-x, -y, z'
   'x, y, -z'
   '-x, y, -z'
   'x, -y, z'
   'x, -y, -z'
   '-x, y, z'
   'z, x, y'
   '-z, -x, -y'
   'z, -x, -y'
   '-z, x, y'
   '-z, -x, y'
   'z, x, -y'
   '-z, x, -y'
   'z, -x, y'
   'y, z, x'
   '-y, -z, -x'
   '-y, z, -x'
   'y, -z, x'
   'y, -z, -x'
   '-y, z, x'
   '-y, -z, x'
   'y, z, -x'
   'y, x, -z'
   '-y, -x, z'
   '-y, -x, -z'
   'y, x, z'
   'y, -x, z'
   '-y, x, -z'
   '-y, x, z'
   'y, -x, -z'
   'x, z, -y'
   '-x, -z, y'
   '-x, z, y'
   'x, -z, -y'
   '-x, -z, -y'
   'x, z, y'
   'x, -z, y'
   '-x, z, -y'
   'z, y, -x'
   '-z, -y, x'
   'z, -y, x'
   '-z, y, -x'
   '-z, y, x'
   'z, -y, -x'
   '-z, -y, -x'
   'z, y, x'

loop_
   _atom_site_label
   _atom_site_occupancy
   _atom_site_fract_x
   _atom_site_fract_y
   _atom_site_fract_z
   _atom_site_adp_type
   _atom_site_B_iso_or_equiv
   _atom_site_type_symbol
   Co         1.0     0.000000      0.000000      0.000000     Biso  1.000000 Co
