#======================================================================

# CRYSTAL DATA

#----------------------------------------------------------------------

data_VESTA_phase_1


_pd_phase_name                         ''
_cell_length_a                         2.824(1)
_cell_length_b                         2.824(1)
_cell_length_c                         13.888(1)
_cell_angle_alpha                      90
_cell_angle_beta                       90
_cell_angle_gamma                      120
_symmetry_space_group_name_H-M         'R -3 m'
_symmetry_Int_Tables_number            166

loop_
_symmetry_equiv_pos_as_xyz
   'x, y, z'
   '-x, -y, -z'
   '-y, x-y, z'
   'y, -x+y, -z'
   '-x+y, -x, z'
   'x-y, x, -z'
   'y, x, -z'
   '-y, -x, z'
   'x-y, -y, -z'
   '-x+y, y, z'
   '-x, -x+y, -z'
   'x, x-y, z'
   'x+2/3, y+1/3, z+1/3'
   '-x+2/3, -y+1/3, -z+1/3'
   '-y+2/3, x-y+1/3, z+1/3'
   'y+2/3, -x+y+1/3, -z+1/3'
   '-x+y+2/3, -x+1/3, z+1/3'
   'x-y+2/3, x+1/3, -z+1/3'
   'y+2/3, x+1/3, -z+1/3'
   '-y+2/3, -x+1/3, z+1/3'
   'x-y+2/3, -y+1/3, -z+1/3'
   '-x+y+2/3, y+1/3, z+1/3'
   '-x+2/3, -x+y+1/3, -z+1/3'
   'x+2/3, x-y+1/3, z+1/3'
   'x+1/3, y+2/3, z+2/3'
   '-x+1/3, -y+2/3, -z+2/3'
   '-y+1/3, x-y+2/3, z+2/3'
   'y+1/3, -x+y+2/3, -z+2/3'
   '-x+y+1/3, -x+2/3, z+2/3'
   'x-y+1/3, x+2/3, -z+2/3'
   'y+1/3, x+2/3, -z+2/3'
   '-y+1/3, -x+2/3, z+2/3'
   'x-y+1/3, -y+2/3, -z+2/3'
   '-x+y+1/3, y+2/3, z+2/3'
   '-x+1/3, -x+y+2/3, -z+2/3'
   'x+1/3, x-y+2/3, z+2/3'

loop_
   _atom_site_label
   _atom_site_occupancy
   _atom_site_fract_x
   _atom_site_fract_y
   _atom_site_fract_z
   _atom_site_adp_type
   _atom_site_B_iso_or_equiv
   _atom_site_type_symbol
   Li1        1.0     0.000000      0.000000      0.000000     Biso  1.600000 Li
   Co1        1.0     0.000000      0.000000      0.500000     Biso  0.900000 Co
   O1         1.0     0.000000      0.000000      0.245900     Biso  1.130000 O
