#----------------------------------------------------------------------
#   Crystal Structure: NaCoO2_stripe_supercell
#----------------------------------------------------------------------
# CIF created in Dans_Diffraction
# Original cif:
# Na0.8CoO2_P63mmc.cif
# Comments:
# Na0.8CoO2 Stripe Supercell. P = [[3, 0, 0], [4, 5, 0], [0, 0, 1]]

data_WRITECIF
_chemical_name_mineral                   ?           
_chemical_name_common                    ?           
_pd_phase_name                           Na0.8CoO2_P63mmc supercell
_chemical_formula_sum                    Na0.8CoO2   
_chemical_formula_weight                 3279.7143   
_cell_formula_units_Z                    ?           

# Cell info
_cell_length_a                           8.550000    
_cell_length_b                           13.060341   
_cell_length_c                           10.800000   
_cell_angle_alpha                        90          
_cell_angle_beta                         90          
_cell_angle_gamma                        70.89       
_cell_volume                             1139.5552   

# Symmetry info
_symmetry_cell_setting                   ?           
_symmetry_space_group_name_H-M           P1          
_symmetry_space_group_name_Hall          ?           
_symmetry_Int_Tables_number              1           

loop_
_space_group_symop_operation_xyz
_symmetry_equiv_pos_as_xyz
x,y,z        x,y,z       

# Atom info
loop_
_atom_site_label
_atom_site_type_symbol
_atom_site_fract_x
_atom_site_fract_y
_atom_site_fract_z
_atom_site_U_iso_or_equiv
_atom_site_occupancy
Co1          Co           0.9333333333333333 0.7999999999999998 0.0          0.0045       1.0         
Co1          Co           0.9333333333333333 0.7999999999999998 0.5          0.0045       1.0         
O1           O            0.8666664666666666 0.9333334    0.0908       0.004956     1.0         
O1           O            1.066666866666667 0.8666665999999998 0.9092000000000001 0.004956     1.0         
O1           O            1.066666866666667 0.8666665999999998 0.5908       0.004956     1.0         
O1           O            0.8666664666666666 0.9333334    0.4092       0.004956     1.0         
Na1          Na           0.9333333333333333 0.7999999999999998 0.25         0.040333     1.0         
Na1          Na           0.9333333333333333 0.7999999999999998 0.7500000000000001 0.040333     0.0         
Na2          Na           1.066666866666667 0.8666665999999998 0.25         0.011889     0.0         
Na2          Na           0.8666664666666666 0.9333334    0.7500000000000001 0.011889     1.0         
Co1          Co           0.6          0.7999999999999999 0.0          0.0045       1.0         
Co1          Co           0.6          0.7999999999999999 0.5          0.0045       1.0         
O1           O            0.5333331333333332 0.9333334    0.0908       0.004956     1.0         
O1           O            0.7333335333333337 0.8666665999999998 0.9092000000000001 0.004956     1.0         
O1           O            0.7333335333333337 0.8666665999999998 0.5908       0.004956     1.0         
O1           O            0.5333331333333332 0.9333334    0.4092       0.004956     1.0         
Na1          Na           0.6          0.7999999999999999 0.25         0.040333     1.0         
Na1          Na           0.6          0.7999999999999999 0.7500000000000001 0.040333     0.0         
Na2          Na           0.7333335333333337 0.8666665999999998 0.25         0.011889     0.0         
Na2          Na           0.5333331333333332 0.9333334    0.7500000000000001 0.011889     1.0         
Co1          Co           0.8666666666666667 0.6          0.0          0.0045       1.0         
Co1          Co           0.8666666666666667 0.6          0.5          0.0045       1.0         
O1           O            0.7999997999999999 0.7333333999999999 0.0908       0.004956     1.0         
O1           O            1.0000002000000001 0.6666665999999999 0.9092000000000001 0.004956     1.0         
O1           O            1.0000002000000001 0.6666665999999999 0.5908       0.004956     1.0         
O1           O            0.7999997999999999 0.7333333999999999 0.4092       0.004956     1.0         
Na1          Na           0.8666666666666667 0.6          0.25         0.040333     1.0         
Na1          Na           0.8666666666666667 0.6          0.7500000000000001 0.040333     0.0         
Na2          Na           1.0000002000000001 0.6666665999999999 0.25         0.011889     0.0         
Na2          Na           0.7999997999999999 0.7333333999999999 0.7500000000000001 0.011889     1.0         
Co1          Co           0.2666666666666667 0.7999999999999999 0.0          0.0045       1.0         
Co1          Co           0.2666666666666667 0.7999999999999999 0.5          0.0045       1.0         
O1           O            0.19999979999999984 0.9333334    0.0908       0.004956     1.0         
O1           O            0.40000020000000036 0.8666665999999998 0.9092000000000001 0.004956     1.0         
O1           O            0.40000020000000036 0.8666665999999998 0.5908       0.004956     1.0         
O1           O            0.19999979999999984 0.9333334    0.4092       0.004956     1.0         
Na1          Na           0.2666666666666667 0.7999999999999999 0.25         0.040333     0.0         
Na1          Na           0.2666666666666667 0.7999999999999999 0.7500000000000001 0.040333     0.0         
Na2          Na           0.40000020000000036 0.8666665999999998 0.25         0.011889     0.0         
Na2          Na           0.19999979999999984 0.9333334    0.7500000000000001 0.011889     1.0         
Co1          Co           0.5333333333333334 0.6          0.0          0.0045       1.0         
Co1          Co           0.5333333333333334 0.6          0.5          0.0045       1.0         
O1           O            0.4666664666666666 0.7333333999999999 0.0908       0.004956     1.0         
O1           O            0.6666668666666669 0.6666666    0.9092000000000001 0.004956     1.0         
O1           O            0.6666668666666669 0.6666666    0.5908       0.004956     1.0         
O1           O            0.4666664666666666 0.7333333999999999 0.4092       0.004956     1.0         
Na1          Na           0.5333333333333334 0.6          0.25         0.040333     0.0         
Na1          Na           0.5333333333333334 0.6          0.7500000000000001 0.040333     0.0         
Na2          Na           0.6666668666666669 0.6666666    0.25         0.011889     0.0         
Na2          Na           0.4666664666666666 0.7333333999999999 0.7500000000000001 0.011889     1.0         
Co1          Co           0.8          0.39999999999999997 0.0          0.0045       1.0         
Co1          Co           0.8          0.39999999999999997 0.5          0.0045       1.0         
O1           O            0.7333331333333333 0.5333333999999998 0.0908       0.004956     1.0         
O1           O            0.9333335333333336 0.4666666    0.9092000000000001 0.004956     1.0         
O1           O            0.9333335333333336 0.4666666    0.5908       0.004956     1.0         
O1           O            0.7333331333333333 0.5333333999999998 0.4092       0.004956     1.0         
Na1          Na           0.8          0.39999999999999997 0.25         0.040333     0.0         
Na1          Na           0.8          0.39999999999999997 0.7500000000000001 0.040333     0.0         
Na2          Na           0.9333335333333336 0.4666666    0.25         0.011889     0.0         
Na2          Na           0.7333331333333333 0.5333333999999998 0.7500000000000001 0.011889     1.0         
Co1          Co           0.19999999999999996 0.6          0.0          0.0045       1.0         
Co1          Co           0.19999999999999996 0.6          0.5          0.0045       1.0         
O1           O            0.13333313333333344 0.7333333999999998 0.0908       0.004956     1.0         
O1           O            0.3333335333333333 0.6666666    0.9092000000000001 0.004956     1.0         
O1           O            0.3333335333333333 0.6666666    0.5908       0.004956     1.0         
O1           O            0.13333313333333344 0.7333333999999998 0.4092       0.004956     1.0         
Na1          Na           0.19999999999999996 0.6          0.25         0.040333     0.0         
Na1          Na           0.19999999999999996 0.6          0.7500000000000001 0.040333     0.0         
Na2          Na           0.3333335333333333 0.6666666    0.25         0.011889     1.0         
Na2          Na           0.13333313333333344 0.7333333999999998 0.7500000000000001 0.011889     1.0         
Co1          Co           0.4666666666666667 0.3999999999999999 0.0          0.0045       1.0         
Co1          Co           0.4666666666666667 0.3999999999999999 0.5          0.0045       1.0         
O1           O            0.39999980000000007 0.5333333999999998 0.0908       0.004956     1.0         
O1           O            0.6000002    0.4666666    0.9092000000000001 0.004956     1.0         
O1           O            0.6000002    0.4666666    0.5908       0.004956     1.0         
O1           O            0.39999980000000007 0.5333333999999998 0.4092       0.004956     1.0         
Na1          Na           0.4666666666666667 0.3999999999999999 0.25         0.040333     0.0         
Na1          Na           0.4666666666666667 0.3999999999999999 0.7500000000000001 0.040333     1.0         
Na2          Na           0.6000002    0.4666666    0.25         0.011889     1.0         
Na2          Na           0.39999980000000007 0.5333333999999998 0.7500000000000001 0.011889     0.0         
Co1          Co           0.7333333333333333 0.19999999999999993 0.0          0.0045       1.0         
Co1          Co           0.7333333333333333 0.19999999999999993 0.5          0.0045       1.0         
O1           O            0.6666664666666667 0.3333333999999999 0.0908       0.004956     1.0         
O1           O            0.8666668666666666 0.26666660000000003 0.9092000000000001 0.004956     1.0         
O1           O            0.8666668666666666 0.26666660000000003 0.5908       0.004956     1.0         
O1           O            0.6666664666666667 0.3333333999999999 0.4092       0.004956     1.0         
Na1          Na           0.7333333333333333 0.19999999999999993 0.25         0.040333     0.0         
Na1          Na           0.7333333333333333 0.19999999999999993 0.7500000000000001 0.040333     1.0         
Na2          Na           0.8666668666666666 0.26666660000000003 0.25         0.011889     1.0         
Na2          Na           0.6666664666666667 0.3333333999999999 0.7500000000000001 0.011889     0.0         
Co1          Co           0.13333333333333336 0.39999999999999997 0.0          0.0045       1.0         
Co1          Co           0.13333333333333336 0.39999999999999997 0.5          0.0045       1.0         
O1           O            0.0666664666666668 0.5333334    0.0908       0.004956     1.0         
O1           O            0.2666668666666667 0.4666666    0.9092000000000001 0.004956     1.0         
O1           O            0.2666668666666667 0.4666666    0.5908       0.004956     1.0         
O1           O            0.0666664666666668 0.5333334    0.4092       0.004956     1.0         
Na1          Na           0.13333333333333336 0.39999999999999997 0.25         0.040333     0.0         
Na1          Na           0.13333333333333336 0.39999999999999997 0.7500000000000001 0.040333     0.0         
Na2          Na           0.2666668666666667 0.4666666    0.25         0.011889     1.0         
Na2          Na           0.0666664666666668 0.5333334    0.7500000000000001 0.011889     1.0         
Co1          Co           0.4          0.19999999999999998 0.0          0.0045       1.0         
Co1          Co           0.4          0.19999999999999998 0.5          0.0045       1.0         
O1           O            0.3333331333333334 0.33333339999999995 0.0908       0.004956     1.0         
O1           O            0.5333335333333333 0.26666660000000003 0.9092000000000001 0.004956     1.0         
O1           O            0.5333335333333333 0.26666660000000003 0.5908       0.004956     1.0         
O1           O            0.3333331333333334 0.33333339999999995 0.4092       0.004956     1.0         
Na1          Na           0.4          0.19999999999999998 0.25         0.040333     0.0         
Na1          Na           0.4          0.19999999999999998 0.7500000000000001 0.040333     1.0         
Na2          Na           0.5333335333333333 0.26666660000000003 0.25         0.011889     1.0         
Na2          Na           0.3333331333333334 0.33333339999999995 0.7500000000000001 0.011889     0.0         
Co1          Co           0.6666666666666666 -1.1783946138565258e-17 0.0          0.0045       1.0         
Co1          Co           0.6666666666666666 -1.1783946138565258e-17 0.5          0.0045       1.0         
O1           O            0.5999998000000001 0.1333334    0.0908       0.004956     1.0         
O1           O            0.8000002    0.06666659999999999 0.9092000000000001 0.004956     1.0         
O1           O            0.8000002    0.06666659999999999 0.5908       0.004956     1.0         
O1           O            0.5999998000000001 0.1333334    0.4092       0.004956     1.0         
Na1          Na           0.6666666666666666 -1.1783946138565258e-17 0.25         0.040333     0.0         
Na1          Na           0.6666666666666666 -1.1783946138565258e-17 0.7500000000000001 0.040333     0.0         
Na2          Na           0.8000002    0.06666659999999999 0.25         0.011889     1.0         
Na2          Na           0.5999998000000001 0.1333334    0.7500000000000001 0.011889     0.0         
Co1          Co           0.06666666666666668 0.19999999999999998 0.0          0.0045       1.0         
Co1          Co           0.06666666666666668 0.19999999999999998 0.5          0.0045       1.0         
O1           O            -1.9999999994128028e-07 0.33333339999999995 0.0908       0.004956     1.0         
O1           O            0.20000019999999988 0.2666666    0.9092000000000001 0.004956     1.0         
O1           O            0.20000019999999988 0.2666666    0.5908       0.004956     1.0         
O1           O            -1.9999999994128028e-07 0.33333339999999995 0.4092       0.004956     1.0         
Na1          Na           0.06666666666666668 0.19999999999999998 0.25         0.040333     0.0         
Na1          Na           0.06666666666666668 0.19999999999999998 0.7500000000000001 0.040333     0.0         
Na2          Na           0.20000019999999988 0.2666666    0.25         0.011889     1.0         
Na2          Na           -1.9999999994128028e-07 0.33333339999999995 0.7500000000000001 0.011889     1.0         
Co1          Co           0.3333333333333333 -5.891973069282629e-18 0.0          0.0045       1.0         
Co1          Co           0.3333333333333333 -5.891973069282629e-18 0.5          0.0045       1.0         
O1           O            0.2666664666666667 0.1333334    0.0908       0.004956     1.0         
O1           O            0.46666686666666657 0.06666659999999996 0.9092000000000001 0.004956     1.0         
O1           O            0.46666686666666657 0.06666659999999996 0.5908       0.004956     1.0         
O1           O            0.2666664666666667 0.1333334    0.4092       0.004956     1.0         
Na1          Na           0.3333333333333333 -5.891973069282629e-18 0.25         0.040333     0.0         
Na1          Na           0.3333333333333333 -5.891973069282629e-18 0.7500000000000001 0.040333     0.0         
Na2          Na           0.46666686666666657 0.06666659999999996 0.25         0.011889     1.0         
Na2          Na           0.2666664666666667 0.1333334    0.7500000000000001 0.011889     0.0         
Co1          Co           0.0          0.0          0.0          0.0045       1.0         
Co1          Co           0.0          0.0          0.5          0.0045       1.0         
O1           O            -0.06666686666666667 0.1333334    0.0908       0.004956     1.0         
O1           O            0.13333353333333334 0.06666659999999998 0.9092000000000001 0.004956     1.0         
O1           O            0.13333353333333334 0.06666659999999998 0.5908       0.004956     1.0         
O1           O            -0.06666686666666667 0.1333334    0.4092       0.004956     1.0         
Na1          Na           0.0          0.0          0.25         0.040333     0.0         
Na1          Na           0.0          0.0          0.7500000000000001 0.040333     0.0         
Na2          Na           0.13333353333333334 0.06666659999999998 0.25         0.011889     1.0         
Na2          Na           -0.06666686666666667 0.1333334    0.7500000000000001 0.011889     0.0         
