data_Rutile
_audit_creation_method         'generated by CrystalDiffract 6 for OS X'
_cell_length_a                   4.5870
_cell_length_b                   4.5870
_cell_length_c                   2.9540
_cell_angle_alpha               90.0000
_cell_angle_beta                90.0000
_cell_angle_gamma               90.0000

_symmetry_space_group_name_H-M     'P 42/m n m'

loop_
_symmetry_equiv_pos_as_xyz
'+x,+y,+z'
'-x,-y,+z'
'1/2-y,1/2+x,1/2+z'
'1/2+y,1/2-x,1/2+z'
'1/2-x,1/2+y,1/2-z'
'1/2+x,1/2-y,1/2-z'
'+y,+x,-z'
'-y,-x,+z'
'-x,-y,-z'
'+x,+y,-z'
'1/2+y,1/2-x,1/2-z'
'1/2-y,1/2+x,1/2-z'
'1/2+x,1/2-y,1/2+z'
'1/2-x,1/2+y,1/2+z'
'-y,-x,-z'
'+y,+x,+z'

loop_
_atom_site_label
_atom_site_type_symbol
_atom_site_occupancy
_atom_site_fract_x
_atom_site_fract_y
_atom_site_fract_z
 Label  Ti 1.0000  0.0000  0.0000  0.0000
 Label  O 1.0000  0.3051  0.3051  0.0000

